*version 9.1 3866893345
u 591
U? 3
DSTM? 10
? 71
@libraries
@analysis
.TRAN 1 0 0 0
+0 1ms
+1 3ms
.STMLIB lab-3-4.stl
+ lab-3-4.stl
@targets
@attributes
@translators
a 0 u 13 0 0 0 hln 100 PCBOARDS=PCB
a 0 u 13 0 0 0 hln 100 PSPICE=PSPICE
a 0 u 13 0 0 0 hln 100 XILINX=XILINX
@setup
unconnectedPins 0
connectViaLabel 0
connectViaLocalLabels 0
NoStim4ExtIFPortsWarnings 1
AutoGenStim4ExtIFPorts 1
@index
pageloc 1 0 9397 
@status
c 105:04:28:15:02:49;1117317769
n 0 105:04:28:15:03:04;1117317784 e 
s 2832 105:04:28:16:10:16;1117321816 e 
*page 1 0 1520 970 iB
@ports
port 307 HI 560 200 h
@parts
part 3 7447A 570 220 U
a 0 sp 11 0 40 100 hln 100 PART=7447A
a 0 s 0:13 0 0 0 hln 100 PKGTYPE=DIP16
a 0 s 0:13 0 0 0 hln 100 GATE=
a 0 a 0:13 0 0 0 hln 100 PKGREF=U2
a 0 ap 9 0 40 -2 hln 100 REFDES=U2
part 2 7483A 370 160 h
a 0 sp 11 0 40 110 hln 100 PART=7483A
a 0 s 0:13 0 0 0 hln 100 PKGTYPE=DIP16
a 0 s 0:13 0 0 0 hln 100 GATE=
a 0 a 0:13 0 0 0 hln 100 PKGREF=U1
a 0 ap 9 0 40 -2 hln 100 REFDES=U1
part 176 DigStim 300 160 h
a 0 x 13 13 -41 9 hln 70 STIMULUS=A2
a 0 a 0:13 0 0 0 hln 100 PKGREF=DSTM3
a 1 ap 9 0 -27 -1 hcn 100 REFDES=DSTM3
part 174 DigStim 300 140 h
a 0 x 13 13 -41 9 hln 70 STIMULUS=A3
a 0 a 0:13 0 0 0 hln 100 PKGREF=DSTM1
a 1 ap 9 0 -27 -1 hcn 100 REFDES=DSTM1
part 175 DigStim 300 120 h
a 0 x 13 13 -41 9 hln 70 STIMULUS=A4
a 0 a 0:13 0 0 0 hln 100 PKGREF=DSTM2
a 1 ap 9 0 -27 -1 hcn 100 REFDES=DSTM2
part 182 DigStim 300 290 h
a 0 x 13 13 -41 9 hln 70 STIMULUS=C0
a 1 ap 9 0 -27 -1 hcn 100 REFDES=DSTM9
a 0 a 0:13 0 0 0 hln 100 PKGREF=DSTM9
part 181 DigStim 300 270 h
a 0 x 13 13 -41 9 hln 70 STIMULUS=B1
a 0 a 0:13 0 0 0 hln 100 PKGREF=DSTM8
a 1 ap 9 0 -27 -1 hcn 100 REFDES=DSTM8
part 180 DigStim 300 250 h
a 0 x 13 13 -41 9 hln 70 STIMULUS=B2
a 0 a 0:13 0 0 0 hln 100 PKGREF=DSTM7
a 1 ap 9 0 -27 -1 hcn 100 REFDES=DSTM7
part 178 DigStim 300 210 h
a 0 x 13 13 -41 9 hln 70 STIMULUS=B4
a 0 a 0:13 0 0 0 hln 100 PKGREF=DSTM5
a 1 ap 9 0 -27 -1 hcn 100 REFDES=DSTM5
part 177 DigStim 300 180 h
a 0 x 13 13 -41 9 hln 70 STIMULUS=A1
a 0 a 0:13 0 0 0 hln 100 PKGREF=DSTM4
a 1 ap 9 0 -27 -1 hcn 100 REFDES=DSTM4
part 179 DigStim 300 230 h
a 0 x 13 13 -41 9 hln 70 STIMULUS=B3
a 0 a 0:13 0 0 0 hln 100 PKGREF=DSTM6
a 1 ap 9 0 -27 -1 hcn 100 REFDES=DSTM6
part 1 titleblk 1520 970 h
a 1 s 13 0 350 10 hcn 100 PAGESIZE=B
a 1 s 13 0 180 60 hcn 100 PAGETITLE=
a 1 s 13 0 340 95 hrn 100 PAGECOUNT=1
a 1 s 13 0 300 95 hrn 100 PAGENO=1
part 556 nodeMarker 480 160 h
a 0 s 0 0 0 0 hln 100 PROBEVAR=
a 0 a 0 0 4 22 hlb 100 LABEL=54
part 557 nodeMarker 650 150 h
a 0 s 0 0 0 0 hln 100 PROBEVAR=
a 0 a 0 0 4 22 hlb 100 LABEL=55
part 558 nodeMarker 650 160 h
a 0 s 0 0 0 0 hln 100 PROBEVAR=
a 0 a 0 0 4 22 hlb 100 LABEL=56
part 559 nodeMarker 650 170 h
a 0 s 0 0 0 0 hln 100 PROBEVAR=
a 0 a 0 0 4 22 hlb 100 LABEL=57
part 560 nodeMarker 650 180 h
a 0 s 0 0 0 0 hln 100 PROBEVAR=
a 0 a 0 0 4 22 hlb 100 LABEL=58
part 561 nodeMarker 650 190 h
a 0 s 0 0 0 0 hln 100 PROBEVAR=
a 0 a 0 0 4 22 hlb 100 LABEL=59
part 562 nodeMarker 650 200 h
a 0 s 0 0 0 0 hln 100 PROBEVAR=
a 0 a 0 0 4 22 hlb 100 LABEL=60
part 563 nodeMarker 650 210 h
a 0 s 0 0 0 0 hln 100 PROBEVAR=
a 0 a 0 0 4 22 hlb 100 LABEL=61
part 564 nodeMarker 310 290 h
a 0 s 0 0 0 0 hln 100 PROBEVAR=
a 0 a 0 0 4 22 hlb 100 LABEL=62
part 566 nodeMarker 310 210 h
a 0 s 0 0 0 0 hln 100 PROBEVAR=
a 0 a 0 0 4 22 hlb 100 LABEL=63
part 568 nodeMarker 310 120 h
a 0 s 0 0 0 0 hln 100 PROBEVAR=
a 0 a 0 0 4 22 hlb 100 LABEL=64
part 570 nodeMarker 310 230 h
a 0 s 0 0 0 0 hln 100 PROBEVAR=
a 0 a 0 0 4 22 hlb 100 LABEL=65
part 572 nodeMarker 310 140 h
a 0 s 0 0 0 0 hln 100 PROBEVAR=
a 0 a 0 0 4 22 hlb 100 LABEL=66
part 574 nodeMarker 310 250 h
a 0 s 0 0 0 0 hln 100 PROBEVAR=
a 0 a 0 0 4 22 hlb 100 LABEL=67
part 576 nodeMarker 310 160 h
a 0 s 0 0 0 0 hln 100 PROBEVAR=
a 0 a 0 0 4 22 hlb 100 LABEL=68
part 578 nodeMarker 310 270 h
a 0 s 0 0 0 0 hln 100 PROBEVAR=
a 0 a 0 0 4 22 hlb 100 LABEL=69
part 580 nodeMarker 310 180 h
a 0 s 0 0 0 0 hln 100 PROBEVAR=
a 0 a 0 0 4 22 hlb 100 LABEL=70
@conn
w 284
a 0 up 0:33 0 0 0 hln 100 LVL=
s 430 240 520 240 287
s 520 240 520 180 285
a 0 up 33 0 522 210 hlt 100 LVL=
s 520 180 570 180 283
w 278
a 0 up 0:33 0 0 0 hln 100 LVL=
s 430 220 510 220 281
s 510 220 510 170 279
s 510 170 570 170 277
a 0 up 33 0 540 169 hct 100 LVL=
w 272
a 0 up 0:33 0 0 0 hln 100 LVL=
s 430 200 500 200 275
s 500 200 500 160 273
s 500 160 570 160 271
a 0 up 33 0 535 159 hct 100 LVL=
w 270
a 0 up 0:33 0 0 0 hln 100 LVL=
s 430 180 490 180 290
s 490 180 490 150 289
s 490 150 570 150 269
a 0 up 33 0 530 149 hct 100 LVL=
w 320
a 0 up 0:33 0 0 0 hln 100 LVL=
s 560 200 570 200 318
s 560 220 560 210 348
s 560 210 560 200 546
s 570 210 560 210 314
s 570 220 560 220 319
a 0 up 33 0 565 219 hct 100 LVL=
w 477
a 0 up 0:33 0 0 0 hln 100 LVL=
a 0 sr 0 0 0 0 hln 100 LABEL=g
s 630 150 650 150 476
a 0 sr 3 0 640 148 hcn 100 LABEL=g
a 0 up 33 0 640 149 hct 100 LVL=
w 479
a 0 up 0:33 0 0 0 hln 100 LVL=
a 0 sr 0 0 0 0 hln 100 LABEL=f
s 630 160 650 160 478
a 0 sr 3 0 640 158 hcn 100 LABEL=f
a 0 up 33 0 640 159 hct 100 LVL=
w 481
a 0 up 0:33 0 0 0 hln 100 LVL=
a 0 sr 0 0 0 0 hln 100 LABEL=e
s 630 170 650 170 480
a 0 sr 3 0 640 168 hcn 100 LABEL=e
a 0 up 33 0 640 169 hct 100 LVL=
w 483
a 0 up 0:33 0 0 0 hln 100 LVL=
a 0 sr 0 0 0 0 hln 100 LABEL=d
s 630 180 650 180 482
a 0 sr 3 0 640 178 hcn 100 LABEL=d
a 0 up 33 0 640 179 hct 100 LVL=
w 485
a 0 up 0:33 0 0 0 hln 100 LVL=
a 0 sr 0 0 0 0 hln 100 LABEL=c
s 630 190 650 190 484
a 0 sr 3 0 640 188 hcn 100 LABEL=c
a 0 up 33 0 640 189 hct 100 LVL=
w 487
a 0 up 0:33 0 0 0 hln 100 LVL=
a 0 sr 0 0 0 0 hln 100 LABEL=b
s 630 200 650 200 486
a 0 sr 3 0 640 198 hcn 100 LABEL=b
a 0 up 33 0 640 199 hct 100 LVL=
w 489
a 0 up 0:33 0 0 0 hln 100 LVL=
a 0 sr 0 0 0 0 hln 100 LABEL=a
s 630 210 650 210 488
a 0 sr 3 0 640 208 hcn 100 LABEL=a
a 0 up 33 0 640 209 hct 100 LVL=
w 541
a 0 sr 0 0 0 0 hln 100 LABEL=CARRY-4
a 0 up 0:33 0 0 0 hln 100 LVL=
s 430 160 480 160 540
a 0 sr 3 0 460 158 hcn 100 LABEL=CARRY-4
a 0 up 33 0 455 159 hct 100 LVL=
w 250
a 0 up 0:33 0 0 0 hln 100 LVL=
a 0 sr 0 0 0 0 hln 100 LABEL=CARRY-0
s 310 290 370 290 565
a 0 sr 3 0 320 288 hcn 100 LABEL=CARRY-0
s 370 290 370 240 251
s 300 290 310 290 433
a 0 up 33 0 350 289 hct 100 LVL=
w 227
a 0 sr 0:3 0 315 208 hcn 100 LABEL=B-4
a 0 up 0:33 0 0 0 hln 100 LVL=
s 310 210 300 210 567
a 0 sr 3 0 315 208 hcn 100 LABEL=B-4
s 330 200 370 200 228
a 0 up 33 0 350 199 hct 100 LVL=
s 330 210 330 200 226
s 330 210 310 210 498
w 221
a 0 up 0:33 0 0 0 hln 100 LVL=
a 0 sr 0 0 0 0 hln 100 LABEL=A-4
s 310 120 360 120 569
a 0 sr 3 0 310 118 hcn 100 LABEL=A-4
s 360 120 360 160 222
a 0 up 33 0 362 140 hlt 100 LVL=
s 360 160 370 160 224
s 300 120 310 120 500
w 232
a 0 up 0:33 0 0 0 hln 100 LVL=
a 0 sr 0 0 0 0 hln 100 LABEL=B-3
s 310 230 340 230 571
a 0 sr 3 0 310 228 hcn 100 LABEL=B-3
s 370 210 340 210 235
s 340 210 340 230 233
s 300 230 310 230 502
a 0 up 33 0 315 229 hct 100 LVL=
w 215
a 0 up 0:33 0 0 0 hln 100 LVL=
a 0 sr 0 0 0 0 hln 100 LABEL=A-3
s 310 140 350 140 573
a 0 sr 3 0 310 138 hcn 100 LABEL=A-3
s 350 140 350 170 216
s 350 170 370 170 218
a 0 up 33 0 360 169 hct 100 LVL=
s 300 140 310 140 504
w 238
a 0 sr 0:3 0 315 248 hcn 100 LABEL=B-2
a 0 up 0:33 0 0 0 hln 100 LVL=
s 310 250 300 250 575
a 0 sr 3 0 315 248 hcn 100 LABEL=B-2
s 370 220 350 220 241
s 350 220 350 250 239
s 350 250 310 250 506
a 0 up 33 0 340 249 hct 100 LVL=
w 209
a 0 up 0:33 0 0 0 hln 100 LVL=
a 0 sr 0 0 0 0 hln 100 LABEL=A-2
s 310 160 340 160 577
a 0 sr 3 0 310 158 hcn 100 LABEL=A-2
s 340 160 340 180 210
s 340 180 370 180 212
a 0 up 33 0 355 179 hct 100 LVL=
s 300 160 310 160 508
w 244
a 0 sr 0:3 0 315 268 hcn 100 LABEL=B-1
a 0 up 0:33 0 0 0 hln 100 LVL=
s 310 270 300 270 579
a 0 sr 3 0 315 268 hcn 100 LABEL=B-1
s 360 270 310 270 434
a 0 up 33 0 350 269 hct 100 LVL=
s 370 230 360 230 247
s 360 230 360 270 245
w 205
a 0 sr 0:3 0 315 178 hcn 100 LABEL=A-1
a 0 up 0:33 0 0 0 hln 100 LVL=
s 310 180 300 180 581
a 0 sr 3 0 315 178 hcn 100 LABEL=A-1
s 330 180 310 180 439
s 330 190 370 190 206
a 0 up 33 0 350 189 hct 100 LVL=
s 330 180 330 190 204
@junction
j 370 240
+ p 2 C0
+ w 250
j 370 220
+ p 2 B2
+ w 238
j 370 200
+ p 2 B4
+ w 227
j 370 180
+ p 2 A2
+ w 209
j 370 170
+ p 2 A3
+ w 215
j 370 190
+ p 2 A1
+ w 205
j 370 210
+ p 2 B3
+ w 232
j 370 230
+ p 2 B1
+ w 244
j 370 160
+ p 2 A4
+ w 221
j 430 240
+ p 2 SUM1
+ w 284
j 430 220
+ p 2 SUM2
+ w 278
j 430 200
+ p 2 SUM3
+ w 272
j 430 180
+ p 2 SUM4
+ w 270
j 570 200
+ p 3 \LT\
+ w 320
j 560 200
+ s 307
+ w 320
j 570 210
+ p 3 \RBI\
+ w 320
j 560 210
+ w 320
+ w 320
j 570 220
+ p 3 \BI\/\RBO\
+ w 320
j 570 150
+ p 3 IND
+ w 270
j 570 160
+ p 3 INC
+ w 272
j 570 170
+ p 3 INB
+ w 278
j 570 180
+ p 3 INA
+ w 284
j 630 210
+ p 3 OUTA
+ w 489
j 630 200
+ p 3 OUTB
+ w 487
j 630 190
+ p 3 OUTC
+ w 485
j 630 180
+ p 3 OUTD
+ w 483
j 630 170
+ p 3 OUTE
+ w 481
j 630 160
+ p 3 OUTF
+ w 479
j 630 150
+ p 3 OUTG
+ w 477
j 430 160
+ p 2 C4
+ w 541
j 480 160
+ p 556 pin1
+ w 541
j 650 150
+ p 557 pin1
+ w 477
j 650 160
+ p 558 pin1
+ w 479
j 650 170
+ p 559 pin1
+ w 481
j 650 180
+ p 560 pin1
+ w 483
j 650 190
+ p 561 pin1
+ w 485
j 650 200
+ p 562 pin1
+ w 487
j 650 210
+ p 563 pin1
+ w 489
j 310 290
+ p 564 pin1
+ w 250
j 310 210
+ p 566 pin1
+ w 227
j 310 120
+ p 568 pin1
+ w 221
j 310 230
+ p 570 pin1
+ w 232
j 310 140
+ p 572 pin1
+ w 215
j 310 250
+ p 574 pin1
+ w 238
j 310 160
+ p 576 pin1
+ w 209
j 310 270
+ p 578 pin1
+ w 244
j 310 180
+ p 580 pin1
+ w 205
j 300 290
+ p 182 *OUT
+ w 250
j 300 210
+ p 178 *OUT
+ w 227
j 300 120
+ p 175 *OUT
+ w 221
j 300 230
+ p 179 *OUT
+ w 232
j 300 140
+ p 174 *OUT
+ w 215
j 300 250
+ p 180 *OUT
+ w 238
j 300 160
+ p 176 *OUT
+ w 209
j 300 270
+ p 181 *OUT
+ w 244
j 300 180
+ p 177 *OUT
+ w 205
@attributes
a 0 s 0:13 0 0 0 hln 100 PAGETITLE=
a 0 s 0:13 0 0 0 hln 100 PAGENO=1
a 0 s 0:13 0 0 0 hln 100 PAGESIZE=B
a 0 s 0:13 0 0 0 hln 100 PAGECOUNT=1
@graphics
