*version 9.1 61643082
u 181
DSTM? 10
U? 6
? 28
@libraries
@analysis
.TRAN 1 0 0 0
+0 1ms
+1 8ms
.STMLIB lab5-4.stl
@targets
@attributes
@translators
a 0 u 13 0 0 0 hln 100 PCBOARDS=PCB
a 0 u 13 0 0 0 hln 100 PSPICE=PSPICE
a 0 u 13 0 0 0 hln 100 XILINX=XILINX
@setup
unconnectedPins 0
connectViaLabel 0
connectViaLocalLabels 0
NoStim4ExtIFPortsWarnings 1
AutoGenStim4ExtIFPorts 1
@index
pageloc 1 0 9343 
@status
n 0 105:04:28:07:22:25;1117290145 e 
s 2832 105:04:28:19:35:03;1117334103 e 
*page 1 0 1520 970 iB
@ports
@parts
part 104 DigStim 100 300 h
a 0 x 13 13 -41 9 hln 70 STIMULUS=B2
a 0 a 0:13 0 0 0 hln 100 PKGREF=DSTM1
a 1 ap 9 0 -27 -1 hcn 100 REFDES=DSTM1
part 105 DigStim 100 350 h
a 0 x 13 13 -41 9 hln 70 STIMULUS=B1
a 0 a 0:13 0 0 0 hln 100 PKGREF=DSTM2
a 1 ap 9 0 -27 -1 hcn 100 REFDES=DSTM2
part 106 DigStim 100 200 h
a 0 x 13 13 -41 9 hln 70 STIMULUS=B4
a 0 a 0:13 0 0 0 hln 100 PKGREF=DSTM3
a 1 ap 9 0 -27 -1 hcn 100 REFDES=DSTM3
part 107 DigStim 100 400 h
a 0 x 13 13 -41 9 hln 70 STIMULUS=C0
a 0 a 0:13 0 0 0 hln 100 PKGREF=DSTM4
a 1 ap 9 0 -27 -1 hcn 100 REFDES=DSTM4
part 108 DigStim 100 250 h
a 0 x 13 13 -41 9 hln 70 STIMULUS=B3
a 0 a 0:13 0 0 0 hln 100 PKGREF=DSTM5
a 1 ap 9 0 -27 -1 hcn 100 REFDES=DSTM5
part 109 DigStim 100 130 h
a 0 x 13 13 -41 9 hln 70 STIMULUS=A1
a 0 a 0:13 0 0 0 hln 100 PKGREF=DSTM6
a 1 ap 9 0 -27 -1 hcn 100 REFDES=DSTM6
part 110 DigStim 100 110 h
a 0 x 13 13 -41 9 hln 70 STIMULUS=A2
a 0 a 0:13 0 0 0 hln 100 PKGREF=DSTM7
a 1 ap 9 0 -27 -1 hcn 100 REFDES=DSTM7
part 111 DigStim 100 90 h
a 0 x 13 13 -41 9 hln 70 STIMULUS=A3
a 0 a 0:13 0 0 0 hln 100 PKGREF=DSTM8
a 1 ap 9 0 -27 -1 hcn 100 REFDES=DSTM8
part 112 DigStim 100 70 h
a 0 x 13 13 -41 9 hln 70 STIMULUS=A4
a 0 a 0:13 0 0 0 hln 100 PKGREF=DSTM9
a 1 ap 9 0 -27 -1 hcn 100 REFDES=DSTM9
part 132 7486 150 350 h
a 0 sp 11 0 40 50 hln 100 PART=7486
a 0 s 0:13 0 0 0 hln 100 PKGTYPE=DIP14
a 0 s 0:13 0 0 0 hln 100 GATE=A
a 0 a 0:13 0 0 0 hln 100 PKGREF=U1
a 0 ap 9 0 9 -3 hln 100 REFDES=U1A
part 133 7486 150 300 h
a 0 sp 11 0 40 50 hln 100 PART=7486
a 0 s 0:13 0 0 0 hln 100 PKGTYPE=DIP14
a 0 s 0:13 0 0 0 hln 100 GATE=A
a 0 a 0:13 0 0 0 hln 100 PKGREF=U2
a 0 ap 9 0 9 -3 hln 100 REFDES=U2A
part 134 7486 150 250 h
a 0 sp 11 0 40 50 hln 100 PART=7486
a 0 s 0:13 0 0 0 hln 100 PKGTYPE=DIP14
a 0 s 0:13 0 0 0 hln 100 GATE=A
a 0 a 0:13 0 0 0 hln 100 PKGREF=U3
a 0 ap 9 0 9 -3 hln 100 REFDES=U3A
part 135 7486 150 200 h
a 0 sp 11 0 40 50 hln 100 PART=7486
a 0 s 0:13 0 0 0 hln 100 PKGTYPE=DIP14
a 0 s 0:13 0 0 0 hln 100 GATE=A
a 0 a 0:13 0 0 0 hln 100 PKGREF=U4
a 0 ap 9 0 9 -3 hln 100 REFDES=U4A
part 136 7483A 320 120 h
a 0 sp 11 0 40 110 hln 100 PART=7483A
a 0 s 0:13 0 0 0 hln 100 PKGTYPE=DIP16
a 0 s 0:13 0 0 0 hln 100 GATE=
a 0 a 0:13 0 0 0 hln 100 PKGREF=U5
a 0 ap 9 0 40 -2 hln 100 REFDES=U5
part 1 titleblk 1520 970 h
a 1 s 13 0 350 10 hcn 100 PAGESIZE=B
a 1 s 13 0 180 60 hcn 100 PAGETITLE=
a 1 s 13 0 340 95 hrn 100 PAGECOUNT=1
a 1 s 13 0 300 95 hrn 100 PAGENO=1
part 158 nodeMarker 420 120 h
a 0 s 0 0 0 0 hln 100 PROBEVAR=
a 0 s 0 0 0 0 hln 100 PROBEVAR=
a 0 a 0 0 4 22 hlb 100 LABEL=14
part 159 nodeMarker 420 140 h
a 0 s 0 0 0 0 hln 100 PROBEVAR=
a 0 s 0 0 0 0 hln 100 PROBEVAR=
a 0 a 0 0 4 22 hlb 100 LABEL=15
part 160 nodeMarker 420 160 h
a 0 s 0 0 0 0 hln 100 PROBEVAR=
a 0 s 0 0 0 0 hln 100 PROBEVAR=
a 0 a 0 0 4 22 hlb 100 LABEL=16
part 161 nodeMarker 420 180 h
a 0 s 0 0 0 0 hln 100 PROBEVAR=
a 0 s 0 0 0 0 hln 100 PROBEVAR=
a 0 a 0 0 4 22 hlb 100 LABEL=17
part 162 nodeMarker 420 200 h
a 0 s 0 0 0 0 hln 100 PROBEVAR=
a 0 s 0 0 0 0 hln 100 PROBEVAR=
a 0 a 0 0 4 22 hlb 100 LABEL=18
part 163 nodeMarker 120 400 h
a 0 s 0 0 0 0 hln 100 PROBEVAR=
a 0 s 0 0 0 0 hln 100 PROBEVAR=
a 0 a 0 0 4 22 hlb 100 LABEL=19
part 165 nodeMarker 120 200 h
a 0 s 0 0 0 0 hln 100 PROBEVAR=
a 0 s 0 0 0 0 hln 100 PROBEVAR=
a 0 a 0 0 4 22 hlb 100 LABEL=20
part 167 nodeMarker 170 70 h
a 0 s 0 0 0 0 hln 100 PROBEVAR=
a 0 s 0 0 0 0 hln 100 PROBEVAR=
a 0 a 0 0 4 22 hlb 100 LABEL=21
part 169 nodeMarker 120 250 h
a 0 s 0 0 0 0 hln 100 PROBEVAR=
a 0 s 0 0 0 0 hln 100 PROBEVAR=
a 0 a 0 0 4 22 hlb 100 LABEL=22
part 171 nodeMarker 170 90 h
a 0 s 0 0 0 0 hln 100 PROBEVAR=
a 0 s 0 0 0 0 hln 100 PROBEVAR=
a 0 a 0 0 4 22 hlb 100 LABEL=23
part 173 nodeMarker 120 300 h
a 0 s 0 0 0 0 hln 100 PROBEVAR=
a 0 s 0 0 0 0 hln 100 PROBEVAR=
a 0 a 0 0 4 22 hlb 100 LABEL=24
part 175 nodeMarker 170 110 h
a 0 s 0 0 0 0 hln 100 PROBEVAR=
a 0 s 0 0 0 0 hln 100 PROBEVAR=
a 0 a 0 0 4 22 hlb 100 LABEL=25
part 177 nodeMarker 120 350 h
a 0 s 0 0 0 0 hln 100 PROBEVAR=
a 0 s 0 0 0 0 hln 100 PROBEVAR=
a 0 a 0 0 4 22 hlb 100 LABEL=26
part 179 nodeMarker 170 130 h
a 0 s 0 0 0 0 hln 100 PROBEVAR=
a 0 s 0 0 0 0 hln 100 PROBEVAR=
a 0 a 0 0 4 22 hlb 100 LABEL=27
@conn
w 87
a 0 up 0:33 0 0 0 hln 100 LVL=
s 270 190 320 190 86
s 220 360 270 360 88
s 270 360 270 190 90
a 0 up 33 0 272 275 hlt 100 LVL=
w 77
a 0 up 0:33 0 0 0 hln 100 LVL=
s 260 180 320 180 76
s 220 310 260 310 78
s 260 310 260 180 80
a 0 up 33 0 262 245 hlt 100 LVL=
w 67
a 0 up 0:33 0 0 0 hln 100 LVL=
s 250 170 320 170 66
s 220 260 250 260 68
s 250 260 250 170 70
a 0 up 33 0 252 215 hlt 100 LVL=
w 61
a 0 up 0:33 0 0 0 hln 100 LVL=
s 240 160 320 160 60
a 0 up 33 0 280 159 hct 100 LVL=
s 220 210 240 210 62
s 240 210 240 160 64
w 103
a 0 sr 3 0 400 138 hcn 100 LABEL=SUM4
a 0 up 0:33 0 0 0 hln 100 LVL=
s 380 140 420 140 102
a 0 sr 3 0 400 138 hcn 100 LABEL=SUM4
a 0 up 33 0 400 139 hct 100 LVL=
w 101
a 0 sr 3 0 400 158 hcn 100 LABEL=SUM3
a 0 up 0:33 0 0 0 hln 100 LVL=
s 380 160 420 160 100
a 0 sr 3 0 400 158 hcn 100 LABEL=SUM3
a 0 up 33 0 400 159 hct 100 LVL=
w 99
a 0 sr 3 0 400 178 hcn 100 LABEL=SUM2
a 0 up 0:33 0 0 0 hln 100 LVL=
s 380 180 420 180 98
a 0 sr 3 0 400 178 hcn 100 LABEL=SUM2
a 0 up 33 0 400 179 hct 100 LVL=
w 97
a 0 sr 3 0 400 198 hcn 100 LABEL=SUM1
a 0 up 0:33 0 0 0 hln 100 LVL=
s 380 200 420 200 96
a 0 sr 3 0 400 198 hcn 100 LABEL=SUM1
a 0 up 33 0 400 199 hct 100 LVL=
w 29
a 0 sr 0:3 0 115 398 hcn 100 LABEL=C0
a 0 up 0:33 0 0 0 hln 100 LVL=
s 120 400 100 400 164
a 0 sr 3 0 115 398 hcn 100 LABEL=C0
s 130 400 120 400 54
a 0 up 33 0 115 399 hct 100 LVL=
s 280 200 320 200 30
s 280 200 280 400 32
s 280 400 130 400 34
s 130 320 130 370 42
s 130 320 150 320 40
s 130 220 130 270 43
s 130 270 130 320 47
s 130 270 150 270 45
s 150 220 130 220 48
s 130 370 150 370 50
s 130 370 130 400 52
w 57
a 0 sr 0:3 0 125 198 hcn 100 LABEL=B4
a 0 up 0:33 0 0 0 hln 100 LVL=
s 120 200 150 200 166
a 0 sr 3 0 125 198 hcn 100 LABEL=B4
s 100 200 120 200 58
a 0 up 33 0 125 199 hct 100 LVL=
w 23
a 0 sr 0:3 0 185 68 hcn 100 LABEL=A4
a 0 up 0:33 0 0 0 hln 100 LVL=
s 170 70 270 70 168
a 0 sr 3 0 170 68 hcn 100 LABEL=A4
s 100 70 170 70 22
a 0 up 33 0 185 69 hct 100 LVL=
s 270 120 320 120 24
s 270 70 270 120 26
w 73
a 0 sr 0:3 0 125 248 hcn 100 LABEL=B3
a 0 up 0:33 0 0 0 hln 100 LVL=
s 120 250 150 250 170
a 0 sr 3 0 125 248 hcn 100 LABEL=B3
s 100 250 120 250 74
a 0 up 33 0 125 249 hct 100 LVL=
w 17
a 0 sr 0:3 0 180 88 hcn 100 LABEL=A3
a 0 up 0:33 0 0 0 hln 100 LVL=
s 170 90 260 90 172
a 0 sr 3 0 170 88 hcn 100 LABEL=A3
s 100 90 170 90 16
a 0 up 33 0 180 89 hct 100 LVL=
s 260 130 320 130 18
s 260 90 260 130 20
w 83
a 0 sr 0:3 0 125 298 hcn 100 LABEL=B2
a 0 up 0:33 0 0 0 hln 100 LVL=
s 120 300 150 300 174
a 0 sr 3 0 125 298 hcn 100 LABEL=B2
s 100 300 120 300 84
a 0 up 33 0 125 299 hct 100 LVL=
w 11
a 0 sr 0:3 0 175 108 hcn 100 LABEL=A2
a 0 up 0:33 0 0 0 hln 100 LVL=
s 170 110 250 110 176
a 0 sr 3 0 170 108 hcn 100 LABEL=A2
s 100 110 170 110 10
a 0 up 33 0 175 109 hct 100 LVL=
s 250 140 320 140 12
s 250 110 250 140 14
w 93
a 0 sr 0:3 0 125 348 hcn 100 LABEL=B1
a 0 up 0:33 0 0 0 hln 100 LVL=
s 120 350 150 350 178
a 0 sr 3 0 125 348 hcn 100 LABEL=B1
s 100 350 120 350 94
a 0 up 33 0 125 349 hct 100 LVL=
w 5
a 0 sr 0:3 0 170 128 hcn 100 LABEL=A1
a 0 up 0:33 0 0 0 hln 100 LVL=
s 170 130 100 130 180
a 0 sr 3 0 170 128 hcn 100 LABEL=A1
s 240 130 170 130 4
a 0 up 33 0 170 129 hct 100 LVL=
s 240 150 320 150 6
s 240 130 240 150 8
w 3
a 0 up 0:33 0 0 0 hln 100 LVL=
a 0 sr 0:3 0 400 118 hcn 100 LABEL=C4
s 380 120 420 120 2
a 0 up 33 0 400 119 hct 100 LVL=
a 0 sr 3 0 400 118 hcn 100 LABEL=C4
@junction
j 130 320
+ w 29
+ w 29
j 130 270
+ w 29
+ w 29
j 130 370
+ w 29
+ w 29
j 130 400
+ w 29
+ w 29
j 100 300
+ p 104 *OUT
+ w 83
j 100 350
+ p 105 *OUT
+ w 93
j 100 200
+ p 106 *OUT
+ w 57
j 100 400
+ p 107 *OUT
+ w 29
j 100 250
+ p 108 *OUT
+ w 73
j 100 130
+ p 109 *OUT
+ w 5
j 100 110
+ p 110 *OUT
+ w 11
j 100 90
+ p 111 *OUT
+ w 17
j 100 70
+ p 112 *OUT
+ w 23
j 150 370
+ p 132 B
+ w 29
j 220 360
+ p 132 Y
+ w 87
j 150 350
+ p 132 A
+ w 93
j 220 310
+ p 133 Y
+ w 77
j 150 300
+ p 133 A
+ w 83
j 150 320
+ p 133 B
+ w 29
j 220 260
+ p 134 Y
+ w 67
j 150 250
+ p 134 A
+ w 73
j 150 270
+ p 134 B
+ w 29
j 150 200
+ p 135 A
+ w 57
j 220 210
+ p 135 Y
+ w 61
j 150 220
+ p 135 B
+ w 29
j 380 120
+ p 136 C4
+ w 3
j 320 150
+ p 136 A1
+ w 5
j 320 140
+ p 136 A2
+ w 11
j 320 130
+ p 136 A3
+ w 17
j 320 120
+ p 136 A4
+ w 23
j 380 200
+ p 136 SUM1
+ w 97
j 380 180
+ p 136 SUM2
+ w 99
j 380 160
+ p 136 SUM3
+ w 101
j 380 140
+ p 136 SUM4
+ w 103
j 320 190
+ p 136 B1
+ w 87
j 320 180
+ p 136 B2
+ w 77
j 320 170
+ p 136 B3
+ w 67
j 320 160
+ p 136 B4
+ w 61
j 320 200
+ p 136 C0
+ w 29
j 420 120
+ p 158 pin1
+ w 3
j 420 140
+ p 159 pin1
+ w 103
j 420 160
+ p 160 pin1
+ w 101
j 420 180
+ p 161 pin1
+ w 99
j 420 200
+ p 162 pin1
+ w 97
j 120 400
+ p 163 pin1
+ w 29
j 120 200
+ p 165 pin1
+ w 57
j 170 70
+ p 167 pin1
+ w 23
j 120 250
+ p 169 pin1
+ w 73
j 170 90
+ p 171 pin1
+ w 17
j 120 300
+ p 173 pin1
+ w 83
j 170 110
+ p 175 pin1
+ w 11
j 120 350
+ p 177 pin1
+ w 93
j 170 130
+ p 179 pin1
+ w 5
@attributes
a 0 s 0:13 0 0 0 hln 100 PAGETITLE=
a 0 s 0:13 0 0 0 hln 100 PAGENO=1
a 0 s 0:13 0 0 0 hln 100 PAGESIZE=B
a 0 s 0:13 0 0 0 hln 100 PAGECOUNT=1
@graphics
