*version 9.1 921672070
u 114
U? 2
DSTM? 9
? 26
@libraries
@analysis
.TRAN 1 0 0 0
+0 1ms
+1 6ms
.STMLIB lab-4-2.stl
@targets
@attributes
@translators
a 0 u 13 0 0 0 hln 100 PCBOARDS=PCB
a 0 u 13 0 0 0 hln 100 PSPICE=PSPICE
a 0 u 13 0 0 0 hln 100 XILINX=XILINX
@setup
unconnectedPins 0
connectViaLabel 0
connectViaLocalLabels 0
NoStim4ExtIFPortsWarnings 1
AutoGenStim4ExtIFPorts 1
@index
pageloc 1 0 4974 
@status
n 0 105:04:29:01:02:22;1117353742 e 
s 2832 105:04:29:17:09:45;1117411785 e 
*page 1 0 1520 970 iB
@ports
port 5 LO 330 190 h
port 3 HI 330 200 h
port 4 LO 330 210 h
@parts
part 16 DigStim 270 180 h
a 1 ap 9 0 -27 4 hcn 100 REFDES=DSTM1
a 0 a 0:13 0 0 0 hln 100 PKGREF=DSTM1
a 0 x 13 13 -41 9 hln 70 STIMULUS=A0
part 17 DigStim 270 160 h
a 1 ap 9 0 -27 4 hcn 100 REFDES=DSTM2
a 0 a 0:13 0 0 0 hln 100 PKGREF=DSTM2
a 0 x 13 13 -41 9 hln 70 STIMULUS=A1
part 18 DigStim 270 140 h
a 1 ap 9 0 -27 4 hcn 100 REFDES=DSTM3
a 0 a 0:13 0 0 0 hln 100 PKGREF=DSTM3
a 0 x 13 13 -41 9 hln 70 STIMULUS=A2
part 19 DigStim 270 120 h
a 1 ap 9 0 -27 4 hcn 100 REFDES=DSTM4
a 0 a 0:13 0 0 0 hln 100 PKGREF=DSTM4
a 0 x 13 13 -41 9 hln 70 STIMULUS=A3
part 23 DigStim 350 110 h
a 0 a 0:13 0 0 0 hln 100 PKGREF=DSTM8
a 1 ap 9 0 -27 4 hcn 100 REFDES=DSTM8
a 0 x 13 13 -41 9 hln 70 STIMULUS=B3
part 20 DigStim 350 170 h
a 0 a 0:13 0 0 0 hln 100 PKGREF=DSTM5
a 1 ap 9 0 -27 4 hcn 100 REFDES=DSTM5
a 0 x 13 13 -41 9 hln 70 STIMULUS=B0
part 21 DigStim 350 150 h
a 0 a 0:13 0 0 0 hln 100 PKGREF=DSTM6
a 1 ap 9 0 -27 4 hcn 100 REFDES=DSTM6
a 0 x 13 13 -41 9 hln 70 STIMULUS=B1
part 22 DigStim 350 130 h
a 0 a 0:13 0 0 0 hln 100 PKGREF=DSTM7
a 1 ap 9 0 -27 4 hcn 100 REFDES=DSTM7
a 0 x 13 13 -41 9 hln 70 STIMULUS=B2
part 2 7485 360 110 h
a 0 sp 11 0 40 130 hln 100 PART=7485
a 0 s 0:13 0 0 0 hln 100 PKGTYPE=DIP16
a 0 s 0:13 0 0 0 hln 100 GATE=
a 0 a 0:13 0 0 0 hln 100 PKGREF=U1
a 0 ap 9 0 40 0 hln 100 REFDES=U1
part 1 titleblk 1520 970 h
a 1 s 13 0 350 10 hcn 100 PAGESIZE=B
a 1 s 13 0 180 60 hcn 100 PAGETITLE=
a 1 s 13 0 300 95 hrn 100 PAGENO=1
a 1 s 13 0 340 95 hrn 100 PAGECOUNT=1
part 103 nodeMarker 420 170 h
a 0 s 0 0 0 0 hln 100 PROBEVAR=
a 0 a 0 0 4 22 hlb 100 LABEL=15
part 104 nodeMarker 420 160 h
a 0 s 0 0 0 0 hln 100 PROBEVAR=
a 0 a 0 0 4 22 hlb 100 LABEL=16
part 105 nodeMarker 420 150 h
a 0 s 0 0 0 0 hln 100 PROBEVAR=
a 0 a 0 0 4 22 hlb 100 LABEL=17
part 106 nodeMarker 360 110 h
a 0 s 0 0 0 0 hln 100 PROBEVAR=
a 0 a 0 0 4 22 hlb 100 LABEL=18
part 107 nodeMarker 360 120 h
a 0 s 0 0 0 0 hln 100 PROBEVAR=
a 0 a 0 0 4 22 hlb 100 LABEL=19
part 108 nodeMarker 360 130 h
a 0 s 0 0 0 0 hln 100 PROBEVAR=
a 0 a 0 0 4 22 hlb 100 LABEL=20
part 109 nodeMarker 360 140 h
a 0 s 0 0 0 0 hln 100 PROBEVAR=
a 0 a 0 0 4 22 hlb 100 LABEL=21
part 110 nodeMarker 360 150 h
a 0 s 0 0 0 0 hln 100 PROBEVAR=
a 0 a 0 0 4 22 hlb 100 LABEL=22
part 111 nodeMarker 360 160 h
a 0 s 0 0 0 0 hln 100 PROBEVAR=
a 0 a 0 0 4 22 hlb 100 LABEL=23
part 112 nodeMarker 360 170 h
a 0 s 0 0 0 0 hln 100 PROBEVAR=
a 0 a 0 0 4 22 hlb 100 LABEL=24
part 113 nodeMarker 360 180 h
a 0 s 0 0 0 0 hln 100 PROBEVAR=
a 0 a 0 0 4 22 hlb 100 LABEL=25
@conn
w 7
a 0 up 0:33 0 0 0 hln 100 LVL=
s 330 190 360 190 82
a 0 up 33 0 340 189 hct 100 LVL=
w 9
a 0 up 0:33 0 0 0 hln 100 LVL=
s 330 200 360 200 84
a 0 up 33 0 340 199 hct 100 LVL=
w 11
a 0 up 0:33 0 0 0 hln 100 LVL=
s 330 210 360 210 86
a 0 up 33 0 340 209 hct 100 LVL=
w 59
a 0 up 0:33 0 0 0 hln 100 LVL=
s 350 110 360 110 58
a 0 up 33 0 355 109 hct 100 LVL=
w 43
a 0 up 0:33 0 0 0 hln 100 LVL=
s 270 120 360 120 93
a 0 up 33 0 315 119 hct 100 LVL=
w 57
a 0 up 0:33 0 0 0 hln 100 LVL=
s 350 130 360 130 56
a 0 up 33 0 355 129 hct 100 LVL=
w 41
a 0 up 0:33 0 0 0 hln 100 LVL=
s 270 140 360 140 96
a 0 up 33 0 315 139 hct 100 LVL=
w 55
a 0 up 0:33 0 0 0 hln 100 LVL=
s 350 150 360 150 54
a 0 up 33 0 355 149 hct 100 LVL=
w 39
a 0 up 0:33 0 0 0 hln 100 LVL=
s 270 160 360 160 99
a 0 up 33 0 315 159 hct 100 LVL=
w 53
a 0 up 0:33 0 0 0 hln 100 LVL=
s 350 170 360 170 52
a 0 up 33 0 355 169 hct 100 LVL=
w 37
a 0 up 0:33 0 0 0 hln 100 LVL=
s 270 180 360 180 102
a 0 up 33 0 315 179 hct 100 LVL=
@junction
j 350 110
+ p 23 *OUT
+ w 59
j 360 110
+ p 2 B3
+ w 59
j 350 130
+ p 22 *OUT
+ w 57
j 360 130
+ p 2 B2
+ w 57
j 350 150
+ p 21 *OUT
+ w 55
j 360 150
+ p 2 B1
+ w 55
j 350 170
+ p 20 *OUT
+ w 53
j 360 170
+ p 2 B0
+ w 53
j 270 180
+ p 16 *OUT
+ w 37
j 360 180
+ p 2 A0
+ w 37
j 270 160
+ p 17 *OUT
+ w 39
j 360 160
+ p 2 A1
+ w 39
j 270 140
+ p 18 *OUT
+ w 41
j 360 140
+ p 2 A2
+ w 41
j 270 120
+ p 19 *OUT
+ w 43
j 360 120
+ p 2 A3
+ w 43
j 330 190
+ s 5
+ w 7
j 360 190
+ p 2 A<B_IN
+ w 7
j 330 200
+ s 3
+ w 9
j 360 200
+ p 2 A=B_IN
+ w 9
j 330 210
+ s 4
+ w 11
j 360 210
+ p 2 A>B_IN
+ w 11
j 420 170
+ p 103 pin1
+ p 2 A>B
j 420 160
+ p 104 pin1
+ p 2 A=B
j 420 150
+ p 105 pin1
+ p 2 A<B
j 360 110
+ p 106 pin1
+ p 2 B3
j 360 110
+ p 106 pin1
+ w 59
j 360 120
+ p 107 pin1
+ p 2 A3
j 360 120
+ p 107 pin1
+ w 43
j 360 130
+ p 108 pin1
+ p 2 B2
j 360 130
+ p 108 pin1
+ w 57
j 360 140
+ p 109 pin1
+ p 2 A2
j 360 140
+ p 109 pin1
+ w 41
j 360 150
+ p 110 pin1
+ p 2 B1
j 360 150
+ p 110 pin1
+ w 55
j 360 160
+ p 111 pin1
+ p 2 A1
j 360 160
+ p 111 pin1
+ w 39
j 360 170
+ p 112 pin1
+ p 2 B0
j 360 170
+ p 112 pin1
+ w 53
j 360 180
+ p 113 pin1
+ p 2 A0
j 360 180
+ p 113 pin1
+ w 37
@attributes
a 0 s 0:13 0 0 0 hln 100 PAGETITLE=
a 0 s 0:13 0 0 0 hln 100 PAGENO=1
a 0 s 0:13 0 0 0 hln 100 PAGESIZE=B
a 0 s 0:13 0 0 0 hln 100 PAGECOUNT=1
@graphics
