*version 9.1 453301052
u 237
U? 2
DSTM? 10
? 39
@libraries
@analysis
.TRAN 1 0 0 0
+0 1ms
+1 6ms
@targets
@attributes
@translators
a 0 u 13 0 0 0 hln 100 PCBOARDS=PCB
a 0 u 13 0 0 0 hln 100 PSPICE=PSPICE
a 0 u 13 0 0 0 hln 100 XILINX=XILINX
@setup
unconnectedPins 0
connectViaLabel 0
connectViaLocalLabels 0
NoStim4ExtIFPortsWarnings 1
AutoGenStim4ExtIFPorts 1
@index
pageloc 1 0 7608 
@status
n 0 105:04:29:20:27:54;1117423674 e 
s 2832 105:04:29:21:12:58;1117426378 e 
*page 1 0 1520 970 iB
@ports
@parts
part 7 STIM1 280 170 h
a 0 a 0:13 0 0 0 hln 100 PKGREF=DSTM5
a 0 ap 9 0 1 -2 hln 100 REFDES=DSTM5
a 0 u 0 0 0 80 hln 100 COMMAND1=0 0
a 0 u 0 0 0 90 hln 100 COMMAND2=1m 1
a 0 u 0 0 0 100 hln 100 COMMAND3=2m 1
a 0 u 0 0 0 110 hln 100 COMMAND4=3m 0
a 0 u 0 0 0 120 hln 100 COMMAND5=4m 0
a 0 u 0 0 0 130 hln 100 COMMAND6=5m 0
part 11 STIM1 280 250 h
a 0 a 0:13 0 0 0 hln 100 PKGREF=DSTM9
a 0 ap 9 0 1 -2 hln 100 REFDES=DSTM9
a 0 u 0 0 0 80 hln 100 COMMAND1=0 0
a 0 u 0 0 0 90 hln 100 COMMAND2=1m 1
a 0 u 0 0 0 100 hln 100 COMMAND3=2m 1
a 0 u 0 0 0 110 hln 100 COMMAND4=3m 0
a 0 u 0 0 0 120 hln 100 COMMAND5=4m 0
a 0 u 0 0 0 130 hln 100 COMMAND6=5m 0
part 10 STIM1 280 230 h
a 0 a 0:13 0 0 0 hln 100 PKGREF=DSTM8
a 0 ap 9 0 1 -2 hln 100 REFDES=DSTM8
a 0 u 0 0 0 80 hln 100 COMMAND1=0 1
a 0 u 0 0 0 90 hln 100 COMMAND2=1m 0
a 0 u 0 0 0 100 hln 100 COMMAND3=2m 1
a 0 u 0 0 0 110 hln 100 COMMAND4=3m 0
a 0 u 0 0 0 120 hln 100 COMMAND5=4m 1
a 0 u 0 0 0 130 hln 100 COMMAND6=5m 1
part 9 STIM1 280 210 h
a 0 a 0:13 0 0 0 hln 100 PKGREF=DSTM7
a 0 ap 9 0 1 -2 hln 100 REFDES=DSTM7
a 0 u 0 0 0 80 hln 100 COMMAND1=0 1
a 0 u 0 0 0 90 hln 100 COMMAND2=1m 1
a 0 u 0 0 0 100 hln 100 COMMAND3=2m 1
a 0 u 0 0 0 110 hln 100 COMMAND4=3m 0
a 0 u 0 0 0 120 hln 100 COMMAND5=4m 0
a 0 u 0 0 0 130 hln 100 COMMAND6=5m 1
part 8 STIM1 280 190 h
a 0 a 0:13 0 0 0 hln 100 PKGREF=DSTM6
a 0 ap 9 0 1 -2 hln 100 REFDES=DSTM6
a 0 u 0 0 0 80 hln 100 COMMAND1=0 0
a 0 u 0 0 0 90 hln 100 COMMAND2=1m 0
a 0 u 0 0 0 100 hln 100 COMMAND3=2m 1
a 0 u 0 0 0 110 hln 100 COMMAND4=3m 0
a 0 u 0 0 0 130 hln 100 COMMAND6=5m 0
a 0 u 0 0 0 120 hln 100 COMMAND5=4m 1
part 3 STIM1 280 90 h
a 0 a 0:13 0 0 0 hln 100 PKGREF=DSTM1
a 0 ap 9 0 1 -2 hln 100 REFDES=DSTM1
a 0 u 0 0 0 80 hln 100 COMMAND1=0 0
a 0 u 0 0 0 90 hln 100 COMMAND2=1m 1
a 0 u 0 0 0 100 hln 100 COMMAND3=2m 1
a 0 u 0 0 0 110 hln 100 COMMAND4=3m 0
a 0 u 0 0 0 120 hln 100 COMMAND5=4m 0
a 0 u 0 0 0 130 hln 100 COMMAND6=5m 1
part 4 STIM1 280 110 h
a 0 a 0:13 0 0 0 hln 100 PKGREF=DSTM2
a 0 ap 9 0 1 -2 hln 100 REFDES=DSTM2
a 0 u 0 0 0 80 hln 100 COMMAND1=0 0
a 0 u 0 0 0 90 hln 100 COMMAND2=1m 0
a 0 u 0 0 0 100 hln 100 COMMAND3=2m 1
a 0 u 0 0 0 110 hln 100 COMMAND4=3m 0
a 0 u 0 0 0 120 hln 100 COMMAND5=4m 1
a 0 u 0 0 0 130 hln 100 COMMAND6=5m 1
part 5 STIM1 280 130 h
a 0 a 0:13 0 0 0 hln 100 PKGREF=DSTM3
a 0 ap 9 0 1 -2 hln 100 REFDES=DSTM3
a 0 u 0 0 0 80 hln 100 COMMAND1=0 1
a 0 u 0 0 0 90 hln 100 COMMAND2=1m 1
a 0 u 0 0 0 100 hln 100 COMMAND3=2m 1
a 0 u 0 0 0 110 hln 100 COMMAND4=3m 0
a 0 u 0 0 0 120 hln 100 COMMAND5=4m 0
a 0 u 0 0 0 130 hln 100 COMMAND6=5m 1
part 6 STIM1 280 150 h
a 0 a 0:13 0 0 0 hln 100 PKGREF=DSTM4
a 0 ap 9 0 1 -2 hln 100 REFDES=DSTM4
a 0 u 0 0 0 80 hln 100 COMMAND1=0 1
a 0 u 0 0 0 90 hln 100 COMMAND2=1m 0
a 0 u 0 0 0 100 hln 100 COMMAND3=2m 1
a 0 u 0 0 0 110 hln 100 COMMAND4=3m 0
a 0 u 0 0 0 120 hln 100 COMMAND5=4m 1
a 0 u 0 0 0 130 hln 100 COMMAND6=5m 0
part 2 74AS280 370 130 h
a 0 sp 11 0 38 110 hln 100 PART=74AS280
a 0 s 0:13 0 0 0 hln 100 PKGTYPE=DIP14
a 0 s 0:13 0 0 0 hln 100 GATE=
a 0 a 0:13 0 0 0 hln 100 PKGREF=U1
a 0 ap 9 0 11 -2 hln 100 REFDES=U1
part 1 titleblk 1520 970 h
a 1 s 13 0 350 10 hcn 100 PAGESIZE=B
a 1 s 13 0 180 60 hcn 100 PAGETITLE=
a 1 s 13 0 300 95 hrn 100 PAGENO=1
a 1 s 13 0 340 95 hrn 100 PAGECOUNT=1
part 217 nodeMarker 450 190 h
a 0 s 0 0 0 0 hln 100 PROBEVAR=
a 0 a 0 0 4 22 hlb 100 LABEL=28
part 218 nodeMarker 450 150 h
a 0 s 0 0 0 0 hln 100 PROBEVAR=
a 0 a 0 0 4 22 hlb 100 LABEL=29
part 219 nodeMarker 320 250 h
a 0 s 0 0 0 0 hln 100 PROBEVAR=
a 0 a 0 0 4 22 hlb 100 LABEL=30
part 221 nodeMarker 320 230 h
a 0 s 0 0 0 0 hln 100 PROBEVAR=
a 0 a 0 0 4 22 hlb 100 LABEL=31
part 223 nodeMarker 320 210 h
a 0 s 0 0 0 0 hln 100 PROBEVAR=
a 0 a 0 0 4 22 hlb 100 LABEL=32
part 225 nodeMarker 320 190 h
a 0 s 0 0 0 0 hln 100 PROBEVAR=
a 0 a 0 0 4 22 hlb 100 LABEL=33
part 227 nodeMarker 320 170 h
a 0 s 0 0 0 0 hln 100 PROBEVAR=
a 0 a 0 0 4 22 hlb 100 LABEL=34
part 229 nodeMarker 320 150 h
a 0 s 0 0 0 0 hln 100 PROBEVAR=
a 0 a 0 0 4 22 hlb 100 LABEL=35
part 231 nodeMarker 320 130 h
a 0 s 0 0 0 0 hln 100 PROBEVAR=
a 0 a 0 0 4 22 hlb 100 LABEL=36
part 233 nodeMarker 320 110 h
a 0 s 0 0 0 0 hln 100 PROBEVAR=
a 0 a 0 0 4 22 hlb 100 LABEL=37
part 235 nodeMarker 320 90 h
a 0 s 0 0 0 0 hln 100 PROBEVAR=
a 0 a 0 0 4 22 hlb 100 LABEL=38
@conn
w 216
a 0 sr 0 0 0 0 hln 100 LABEL=Po
s 430 190 450 190 215
a 0 sr 3 0 440 188 hcn 100 LABEL=Po
w 214
a 0 sr 0 0 0 0 hln 100 LABEL=Pe
s 430 150 450 150 213
a 0 sr 3 0 440 148 hcn 100 LABEL=Pe
w 55
a 0 sr 0:3 0 345 248 hcn 100 LABEL=Input_8
a 0 up 0:33 0 0 0 hln 100 LVL=
s 320 250 280 250 220
a 0 sr 3 0 305 248 hcn 100 LABEL=Input_8
s 370 250 320 250 140
s 370 210 370 250 56
a 0 up 33 0 372 230 hlt 100 LVL=
w 49
a 0 sr 0 0 0 0 hln 100 LABEL=Input_7
a 0 up 0:33 0 0 0 hln 100 LVL=
s 280 230 320 230 142
a 0 sr 3 0 305 228 hcn 100 LABEL=Input_7
s 360 200 370 200 52
s 360 230 360 200 50
a 0 up 33 0 362 215 hlt 100 LVL=
s 320 230 360 230 222
w 43
a 0 sr 0 0 0 0 hln 100 LABEL=Input_6
a 0 up 0:33 0 0 0 hln 100 LVL=
s 280 210 320 210 144
a 0 sr 3 0 305 208 hcn 100 LABEL=Input_6
s 350 190 370 190 46
a 0 up 33 0 360 189 hct 100 LVL=
s 350 210 350 190 44
s 320 210 350 210 224
w 37
a 0 sr 0 0 0 0 hln 100 LABEL=Input_5
a 0 up 0:33 0 0 0 hln 100 LVL=
s 280 190 320 190 36
a 0 sr 3 0 305 188 hcn 100 LABEL=Input_5
s 340 180 370 180 40
a 0 up 33 0 355 179 hct 100 LVL=
s 340 190 340 180 38
s 320 190 340 190 226
w 61
a 0 sr 0 0 0 0 hln 100 LABEL=Input_4
a 0 up 0:33 0 0 0 hln 100 LVL=
s 280 170 320 170 201
a 0 up 33 0 210 169 hct 100 LVL=
a 0 sr 3 0 305 168 hcn 100 LABEL=Input_4
s 320 170 370 170 228
w 31
a 0 sr 0 0 0 0 hln 100 LABEL=Input_3
a 0 up 0:33 0 0 0 hln 100 LVL=
s 280 150 320 150 30
a 0 sr 3 0 305 148 hcn 100 LABEL=Input_3
s 340 160 370 160 34
a 0 up 33 0 355 159 hct 100 LVL=
s 340 150 340 160 32
s 320 150 340 150 230
w 25
a 0 sr 0 0 0 0 hln 100 LABEL=Input_2
a 0 up 0:33 0 0 0 hln 100 LVL=
s 280 130 320 130 74
a 0 sr 3 0 305 128 hcn 100 LABEL=Input_2
s 350 150 370 150 28
a 0 up 33 0 360 149 hct 100 LVL=
s 350 130 350 150 26
s 320 130 350 130 232
w 19
a 0 sr 0 0 0 0 hln 100 LABEL=Input_1
a 0 up 0:33 0 0 0 hln 100 LVL=
s 280 110 320 110 72
a 0 sr 3 0 305 108 hcn 100 LABEL=Input_1
s 360 140 370 140 22
s 360 110 360 140 20
a 0 up 33 0 362 125 hlt 100 LVL=
s 320 110 360 110 234
w 13
a 0 sr 0:3 0 345 88 hcn 100 LABEL=Input_0
a 0 up 0:33 0 0 0 hln 100 LVL=
s 320 90 280 90 236
a 0 sr 3 0 305 88 hcn 100 LABEL=Input_0
s 370 90 320 90 70
s 370 130 370 90 14
a 0 up 33 0 372 110 hlt 100 LVL=
@junction
j 370 210
+ p 2 I
+ w 55
j 370 130
+ p 2 A
+ w 13
j 370 200
+ p 2 H
+ w 49
j 370 190
+ p 2 G
+ w 43
j 370 180
+ p 2 F
+ w 37
j 370 160
+ p 2 D
+ w 31
j 370 150
+ p 2 C
+ w 25
j 370 140
+ p 2 B
+ w 19
j 370 170
+ p 2 E
+ w 61
j 280 110
+ p 4 pin1
+ w 19
j 280 90
+ p 3 pin1
+ w 13
j 280 130
+ p 5 pin1
+ w 25
j 280 150
+ p 6 pin1
+ w 31
j 280 170
+ p 7 pin1
+ w 61
j 280 190
+ p 8 pin1
+ w 37
j 280 210
+ p 9 pin1
+ w 43
j 280 230
+ p 10 pin1
+ w 49
j 280 250
+ p 11 pin1
+ w 55
j 430 150
+ p 2 EVEN
+ w 214
j 430 190
+ p 2 ODD
+ w 216
j 450 190
+ p 217 pin1
+ w 216
j 450 150
+ p 218 pin1
+ w 214
j 320 250
+ p 219 pin1
+ w 55
j 320 230
+ p 221 pin1
+ w 49
j 320 210
+ p 223 pin1
+ w 43
j 320 190
+ p 225 pin1
+ w 37
j 320 170
+ p 227 pin1
+ w 61
j 320 150
+ p 229 pin1
+ w 31
j 320 130
+ p 231 pin1
+ w 25
j 320 110
+ p 233 pin1
+ w 19
j 320 90
+ p 235 pin1
+ w 13
@attributes
a 0 s 0:13 0 0 0 hln 100 PAGETITLE=
a 0 s 0:13 0 0 0 hln 100 PAGENO=1
a 0 s 0:13 0 0 0 hln 100 PAGESIZE=B
a 0 s 0:13 0 0 0 hln 100 PAGECOUNT=1
@graphics
