*version 9.1 41869707
u 280
U? 2
DSTM? 10
? 84
@libraries
@analysis
.TRAN 1 0 0 0
+0 1ms
+1 8ms
.STMLIB lab-5-3.stl
@targets
@attributes
@translators
a 0 u 13 0 0 0 hln 100 PCBOARDS=PCB
a 0 u 13 0 0 0 hln 100 PSPICE=PSPICE
a 0 u 13 0 0 0 hln 100 XILINX=XILINX
@setup
unconnectedPins 0
connectViaLabel 0
connectViaLocalLabels 0
NoStim4ExtIFPortsWarnings 1
AutoGenStim4ExtIFPorts 1
@index
pageloc 1 0 6839 
@status
n 0 105:04:27:17:34:04;1117240444 e 
c 105:04:27:17:33:19;1117240399
s 2832 105:04:28:19:33:15;1117333995 e 
*page 1 0 1520 970 iB
@ports
@parts
part 2 7483A 210 120 h
a 0 sp 11 0 40 110 hln 100 PART=7483A
a 0 s 0:13 0 0 0 hln 100 PKGTYPE=DIP16
a 0 s 0:13 0 0 0 hln 100 GATE=
a 0 a 0:13 0 0 0 hln 100 PKGREF=U1
a 0 ap 9 0 40 -2 hln 100 REFDES=U1
part 5 DigStim 150 100 h
a 0 a 0:13 0 0 0 hln 100 PKGREF=DSTM3
a 1 ap 9 0 -27 -1 hcn 100 REFDES=DSTM3
a 0 x 13 13 -41 9 hln 70 STIMULUS=A3
part 6 DigStim 150 80 h
a 0 a 0:13 0 0 0 hln 100 PKGREF=DSTM4
a 1 ap 9 0 -27 -1 hcn 100 REFDES=DSTM4
a 0 x 13 13 -41 9 hln 70 STIMULUS=A4
part 4 DigStim 150 120 h
a 0 a 0:13 0 0 0 hln 100 PKGREF=DSTM2
a 0 x 13 13 -41 9 hln 70 STIMULUS=A2
a 1 ap 9 0 -27 -1 hcn 100 REFDES=DSTM2
part 3 DigStim 150 140 h
a 0 a 0:13 0 0 0 hln 100 PKGREF=DSTM1
a 0 x 13 13 -41 9 hln 70 STIMULUS=A1
a 1 ap 9 0 -27 -1 hcn 100 REFDES=DSTM1
part 50 DigStim 150 170 h
a 0 a 0:13 0 0 0 hln 100 PKGREF=DSTM8
a 0 x 13 13 -41 9 hln 70 STIMULUS=B4
a 1 ap 9 0 -27 -1 hcn 100 REFDES=DSTM8
part 49 DigStim 150 190 h
a 0 a 0:13 0 0 0 hln 100 PKGREF=DSTM7
a 0 x 13 13 -41 9 hln 70 STIMULUS=B3
a 1 ap 9 0 -27 -1 hcn 100 REFDES=DSTM7
part 48 DigStim 150 210 h
a 0 a 0:13 0 0 0 hln 100 PKGREF=DSTM6
a 0 x 13 13 -41 9 hln 70 STIMULUS=B2
a 1 ap 9 0 -27 -1 hcn 100 REFDES=DSTM6
part 47 DigStim 150 230 h
a 0 a 0:13 0 0 0 hln 100 PKGREF=DSTM5
a 0 x 13 13 -41 9 hln 70 STIMULUS=B1
a 1 ap 9 0 -27 -1 hcn 100 REFDES=DSTM5
part 143 DigStim 150 250 h
a 0 a 0:13 0 0 0 hln 100 PKGREF=DSTM9
a 0 x 13 13 -41 9 hln 70 STIMULUS=C0
a 1 ap 9 0 -27 -1 hcn 100 REFDES=DSTM9
part 1 titleblk 1520 970 h
a 1 s 13 0 350 10 hcn 100 PAGESIZE=B
a 1 s 13 0 180 60 hcn 100 PAGETITLE=
a 1 s 13 0 340 95 hrn 100 PAGECOUNT=1
a 1 s 13 0 300 95 hrn 100 PAGENO=1
part 266 nodeMarker 310 120 h
a 0 s 0 0 0 0 hln 100 PROBEVAR=
a 0 a 0 0 4 22 hlb 100 LABEL=70
part 267 nodeMarker 310 140 h
a 0 s 0 0 0 0 hln 100 PROBEVAR=
a 0 a 0 0 4 22 hlb 100 LABEL=71
part 268 nodeMarker 310 160 h
a 0 s 0 0 0 0 hln 100 PROBEVAR=
a 0 a 0 0 4 22 hlb 100 LABEL=72
part 269 nodeMarker 310 180 h
a 0 s 0 0 0 0 hln 100 PROBEVAR=
a 0 a 0 0 4 22 hlb 100 LABEL=73
part 270 nodeMarker 310 200 h
a 0 s 0 0 0 0 hln 100 PROBEVAR=
a 0 a 0 0 4 22 hlb 100 LABEL=74
part 271 nodeMarker 200 250 h
a 0 s 0 0 0 0 hln 100 PROBEVAR=
a 0 a 0 0 4 22 hlb 100 LABEL=75
part 272 nodeMarker 160 170 h
a 0 s 0 0 0 0 hln 100 PROBEVAR=
a 0 a 0 0 4 22 hlb 100 LABEL=76
part 273 nodeMarker 190 80 h
a 0 s 0 0 0 0 hln 100 PROBEVAR=
a 0 a 0 0 4 22 hlb 100 LABEL=77
part 274 nodeMarker 170 190 h
a 0 s 0 0 0 0 hln 100 PROBEVAR=
a 0 a 0 0 4 22 hlb 100 LABEL=78
part 275 nodeMarker 180 100 h
a 0 s 0 0 0 0 hln 100 PROBEVAR=
a 0 a 0 0 4 22 hlb 100 LABEL=79
part 276 nodeMarker 180 210 h
a 0 s 0 0 0 0 hln 100 PROBEVAR=
a 0 a 0 0 4 22 hlb 100 LABEL=80
part 277 nodeMarker 170 120 h
a 0 s 0 0 0 0 hln 100 PROBEVAR=
a 0 a 0 0 4 22 hlb 100 LABEL=81
part 278 nodeMarker 190 230 h
a 0 s 0 0 0 0 hln 100 PROBEVAR=
a 0 a 0 0 4 22 hlb 100 LABEL=82
part 279 nodeMarker 160 140 h
a 0 s 0 0 0 0 hln 100 PROBEVAR=
a 0 a 0 0 4 22 hlb 100 LABEL=83
@conn
w 158
a 0 sr 0 0 0 0 hln 100 LABEL=CARRY
a 0 up 0:33 0 0 0 hln 100 LVL=
s 270 120 310 120 157
a 0 sr 3 0 290 118 hcn 100 LABEL=CARRY
a 0 up 33 0 290 119 hct 100 LVL=
w 160
a 0 sr 0 0 0 0 hln 100 LABEL=SUM4
a 0 up 0:33 0 0 0 hln 100 LVL=
s 270 140 310 140 159
a 0 sr 3 0 290 138 hcn 100 LABEL=SUM4
a 0 up 33 0 290 139 hct 100 LVL=
w 162
a 0 sr 0 0 0 0 hln 100 LABEL=SUM3
a 0 up 0:33 0 0 0 hln 100 LVL=
s 270 160 310 160 161
a 0 sr 3 0 290 158 hcn 100 LABEL=SUM3
a 0 up 33 0 290 159 hct 100 LVL=
w 164
a 0 sr 0 0 0 0 hln 100 LABEL=SUM2
a 0 up 0:33 0 0 0 hln 100 LVL=
s 270 180 310 180 163
a 0 sr 3 0 290 178 hcn 100 LABEL=SUM2
a 0 up 33 0 290 179 hct 100 LVL=
w 166
a 0 sr 0 0 0 0 hln 100 LABEL=SUM1
a 0 up 0:33 0 0 0 hln 100 LVL=
s 270 200 310 200 165
a 0 sr 3 0 290 198 hcn 100 LABEL=SUM1
a 0 up 33 0 290 199 hct 100 LVL=
w 145
a 0 sr 0 0 0 0 hln 100 LABEL=C0
a 0 up 0:33 0 0 0 hln 100 LVL=
s 150 250 200 250 221
a 0 sr 3 0 175 248 hcn 100 LABEL=C0
a 0 up 33 0 175 249 hct 100 LVL=
s 200 200 210 200 174
s 200 250 200 200 168
w 70
a 0 sr 0 0 0 0 hln 100 LABEL=B4
a 0 up 0:33 0 0 0 hln 100 LVL=
s 160 170 150 170 69
a 0 sr 3 0 155 168 hcn 100 LABEL=B4
a 0 up 33 0 155 169 hct 100 LVL=
s 160 160 160 170 71
s 210 160 160 160 73
w 26
a 0 sr 0 0 0 0 hln 100 LABEL=A4
a 0 up 0:33 0 0 0 hln 100 LVL=
s 190 80 150 80 25
a 0 sr 3 0 170 78 hcn 100 LABEL=A4
a 0 up 33 0 170 79 hct 100 LVL=
s 190 120 190 80 75
s 210 120 190 120 76
w 64
a 0 sr 0 0 0 0 hln 100 LABEL=B3
a 0 up 0:33 0 0 0 hln 100 LVL=
s 170 190 150 190 63
a 0 sr 3 0 160 188 hcn 100 LABEL=B3
a 0 up 33 0 160 189 hct 100 LVL=
s 170 170 170 190 65
s 210 170 170 170 67
w 20
a 0 sr 0 0 0 0 hln 100 LABEL=A3
a 0 up 0:33 0 0 0 hln 100 LVL=
s 180 100 150 100 199
a 0 sr 3 0 165 98 hcn 100 LABEL=A3
a 0 up 33 0 165 99 hct 100 LVL=
s 180 130 180 100 28
s 210 130 180 130 19
w 58
a 0 sr 0 0 0 0 hln 100 LABEL=B2
a 0 up 0:33 0 0 0 hln 100 LVL=
s 180 210 150 210 57
a 0 sr 3 0 165 208 hcn 100 LABEL=B2
a 0 up 33 0 165 209 hct 100 LVL=
s 180 180 180 210 59
s 210 180 180 180 61
w 14
a 0 sr 0 0 0 0 hln 100 LABEL=A2
a 0 up 0:33 0 0 0 hln 100 LVL=
s 170 120 150 120 37
a 0 sr 3 0 160 118 hcn 100 LABEL=A2
a 0 up 33 0 160 119 hct 100 LVL=
s 170 140 170 120 32
s 210 140 170 140 13
w 52
a 0 sr 0 0 0 0 hln 100 LABEL=B1
a 0 up 0:33 0 0 0 hln 100 LVL=
s 190 230 150 230 51
a 0 sr 3 0 170 228 hcn 100 LABEL=B1
a 0 up 33 0 170 229 hct 100 LVL=
s 190 190 190 230 53
s 210 190 190 190 55
w 8
a 0 sr 0 0 0 0 hln 100 LABEL=A1
a 0 up 0:33 0 0 0 hln 100 LVL=
s 160 140 150 140 7
a 0 sr 3 0 155 138 hcn 100 LABEL=A1
a 0 up 33 0 155 139 hct 100 LVL=
s 160 150 160 140 9
s 210 150 160 150 200
@junction
j 150 140
+ p 3 *OUT
+ w 8
j 150 210
+ p 48 *OUT
+ w 58
j 150 170
+ p 50 *OUT
+ w 70
j 150 250
+ p 143 *OUT
+ w 145
j 150 190
+ p 49 *OUT
+ w 64
j 150 120
+ p 4 *OUT
+ w 14
j 150 80
+ p 6 *OUT
+ w 26
j 150 100
+ p 5 *OUT
+ w 20
j 210 160
+ p 2 B4
+ w 70
j 210 150
+ p 2 A1
+ w 8
j 210 170
+ p 2 B3
+ w 64
j 210 180
+ p 2 B2
+ w 58
j 210 190
+ p 2 B1
+ w 52
j 210 140
+ p 2 A2
+ w 14
j 210 130
+ p 2 A3
+ w 20
j 270 120
+ p 2 C4
+ w 158
j 270 140
+ p 2 SUM4
+ w 160
j 270 160
+ p 2 SUM3
+ w 162
j 270 180
+ p 2 SUM2
+ w 164
j 270 200
+ p 2 SUM1
+ w 166
j 210 200
+ p 2 C0
+ w 145
j 210 120
+ p 2 A4
+ w 26
j 150 230
+ p 47 *OUT
+ w 52
j 310 120
+ p 266 pin1
+ w 158
j 310 140
+ p 267 pin1
+ w 160
j 310 160
+ p 268 pin1
+ w 162
j 310 180
+ p 269 pin1
+ w 164
j 310 200
+ p 270 pin1
+ w 166
j 200 250
+ p 271 pin1
+ w 145
j 160 170
+ p 272 pin1
+ w 70
j 190 80
+ p 273 pin1
+ w 26
j 170 190
+ p 274 pin1
+ w 64
j 180 100
+ p 275 pin1
+ w 20
j 180 210
+ p 276 pin1
+ w 58
j 170 120
+ p 277 pin1
+ w 14
j 190 230
+ p 278 pin1
+ w 52
j 160 140
+ p 279 pin1
+ w 8
@attributes
a 0 s 0:13 0 0 0 hln 100 PAGETITLE=
a 0 s 0:13 0 0 0 hln 100 PAGENO=1
a 0 s 0:13 0 0 0 hln 100 PAGESIZE=B
a 0 s 0:13 0 0 0 hln 100 PAGECOUNT=1
@graphics
