*version 9.1 3907508557
u 544
U? 3
DSTM? 13
? 78
@libraries
@analysis
.TRAN 1 0 0 0
+0 1ms
+1 6ms
.STMLIB lab-4-2-6bit.stl
@targets
@attributes
@translators
a 0 u 13 0 0 0 hln 100 PCBOARDS=PCB
a 0 u 13 0 0 0 hln 100 PSPICE=PSPICE
a 0 u 13 0 0 0 hln 100 XILINX=XILINX
@setup
unconnectedPins 0
connectViaLabel 0
connectViaLocalLabels 0
NoStim4ExtIFPortsWarnings 1
AutoGenStim4ExtIFPorts 1
@index
pageloc 1 0 8841 
@status
c 105:04:29:19:35:22;1117420522
n 0 105:04:29:19:35:33;1117420533 e 
s 2832 105:04:30:17:11:26;1117498286 e 
*page 1 0 1520 970 iB
@ports
port 140 LO 240 290 h
port 139 LO 240 270 h
port 141 HI 240 280 h
port 3 LO 420 70 h
@parts
part 86 DigStim 230 190 h
a 0 a 0:13 0 0 0 hln 100 PKGREF=DSTM10
a 1 ap 9 0 -27 4 hcn 100 REFDES=DSTM10
a 0 x 13 13 -41 9 hln 70 STIMULUS=B3
part 85 DigStim 230 210 h
a 0 a 0:13 0 0 0 hln 100 PKGREF=DSTM9
a 1 ap 9 0 -27 4 hcn 100 REFDES=DSTM9
a 0 x 13 13 -41 9 hln 70 STIMULUS=B2
part 76 DigStim 230 230 h
a 0 a 0:13 0 0 0 hln 100 PKGREF=DSTM8
a 1 ap 9 0 -27 4 hcn 100 REFDES=DSTM8
a 0 x 13 13 -41 9 hln 70 STIMULUS=B1
part 75 DigStim 230 250 h
a 0 a 0:13 0 0 0 hln 100 PKGREF=DSTM7
a 0 x 13 13 -41 9 hln 70 STIMULUS=B0
a 1 ap 9 0 -27 4 hcn 100 REFDES=DSTM7
part 29 DigStim 140 200 h
a 0 a 0:13 0 0 0 hln 100 PKGREF=DSTM4
a 0 x 13 13 -41 9 hln 70 STIMULUS=A3
a 1 ap 9 0 -27 4 hcn 100 REFDES=DSTM4
part 28 DigStim 140 220 h
a 0 a 0:13 0 0 0 hln 100 PKGREF=DSTM3
a 0 x 13 13 -41 9 hln 70 STIMULUS=A2
a 1 ap 9 0 -27 4 hcn 100 REFDES=DSTM3
part 27 DigStim 140 240 h
a 0 a 0:13 0 0 0 hln 100 PKGREF=DSTM2
a 0 x 13 13 -41 9 hln 70 STIMULUS=A1
a 1 ap 9 0 -27 4 hcn 100 REFDES=DSTM2
part 26 DigStim 140 260 h
a 0 a 0:13 0 0 0 hln 100 PKGREF=DSTM1
a 0 x 13 13 -41 9 hln 70 STIMULUS=A0
a 1 ap 9 0 -27 4 hcn 100 REFDES=DSTM1
part 19 7485 300 190 h
a 0 sp 11 0 40 130 hln 100 PART=7485
a 0 s 0:13 0 0 0 hln 100 PKGTYPE=DIP16
a 0 s 0:13 0 0 0 hln 100 GATE=
a 0 a 0:13 0 0 0 hln 100 PKGREF=U2
a 0 ap 9 0 40 0 hln 100 REFDES=U2
part 88 DigStim 360 110 h
a 0 a 0:13 0 0 0 hln 100 PKGREF=DSTM12
a 1 ap 9 0 -27 4 hcn 100 REFDES=DSTM12
a 0 x 13 13 -41 9 hln 70 STIMULUS=B5
part 87 DigStim 360 130 h
a 0 a 0:13 0 0 0 hln 100 PKGREF=DSTM11
a 1 ap 9 0 -27 4 hcn 100 REFDES=DSTM11
a 0 x 13 13 -41 9 hln 70 STIMULUS=B4
part 30 DigStim 270 140 h
a 0 a 0:13 0 0 0 hln 100 PKGREF=DSTM5
a 1 ap 9 0 -27 4 hcn 100 REFDES=DSTM5
a 0 x 13 13 -41 9 hln 70 STIMULUS=A4
part 31 DigStim 270 120 h
a 0 a 0:13 0 0 0 hln 100 PKGREF=DSTM6
a 1 ap 9 0 -27 4 hcn 100 REFDES=DSTM6
a 0 x 13 13 -41 9 hln 70 STIMULUS=A5
part 2 7485 440 70 h
a 0 sp 11 0 40 130 hln 100 PART=7485
a 0 s 0:13 0 0 0 hln 100 PKGTYPE=DIP16
a 0 s 0:13 0 0 0 hln 100 GATE=
a 0 a 0:13 0 0 0 hln 100 PKGREF=U1
a 0 ap 9 0 40 0 hln 100 REFDES=U1
part 1 titleblk 1520 970 h
a 1 s 13 0 350 10 hcn 100 PAGESIZE=B
a 1 s 13 0 180 60 hcn 100 PAGETITLE=
a 1 s 13 0 340 95 hrn 100 PAGECOUNT=1
a 1 s 13 0 300 95 hrn 100 PAGENO=1
part 517 nodeMarker 500 130 h
a 0 s 0 0 0 0 hln 100 PROBEVAR=
a 0 a 0 0 4 22 hlb 100 LABEL=63
part 518 nodeMarker 500 120 h
a 0 s 0 0 0 0 hln 100 PROBEVAR=
a 0 a 0 0 4 22 hlb 100 LABEL=64
part 519 nodeMarker 500 110 h
a 0 s 0 0 0 0 hln 100 PROBEVAR=
a 0 a 0 0 4 22 hlb 100 LABEL=65
part 520 nodeMarker 390 110 h
a 0 s 0 0 0 0 hln 100 PROBEVAR=
a 0 a 0 0 4 22 hlb 100 LABEL=66
part 522 nodeMarker 390 130 h
a 0 s 0 0 0 0 hln 100 PROBEVAR=
a 0 a 0 0 4 22 hlb 100 LABEL=67
part 524 nodeMarker 270 190 h
a 0 s 0 0 0 0 hln 100 PROBEVAR=
a 0 a 0 0 4 22 hlb 100 LABEL=68
part 526 nodeMarker 270 210 h
a 0 s 0 0 0 0 hln 100 PROBEVAR=
a 0 a 0 0 4 22 hlb 100 LABEL=69
part 528 nodeMarker 270 230 h
a 0 s 0 0 0 0 hln 100 PROBEVAR=
a 0 a 0 0 4 22 hlb 100 LABEL=70
part 530 nodeMarker 270 250 h
a 0 s 0 0 0 0 hln 100 PROBEVAR=
a 0 a 0 0 4 22 hlb 100 LABEL=71
part 532 nodeMarker 360 120 h
a 0 s 0 0 0 0 hln 100 PROBEVAR=
a 0 a 0 0 4 22 hlb 100 LABEL=72
part 534 nodeMarker 360 140 h
a 0 s 0 0 0 0 hln 100 PROBEVAR=
a 0 a 0 0 4 22 hlb 100 LABEL=73
part 536 nodeMarker 240 200 h
a 0 s 0 0 0 0 hln 100 PROBEVAR=
a 0 a 0 0 4 22 hlb 100 LABEL=74
part 538 nodeMarker 240 220 h
a 0 s 0 0 0 0 hln 100 PROBEVAR=
a 0 a 0 0 4 22 hlb 100 LABEL=75
part 540 nodeMarker 240 240 h
a 0 s 0 0 0 0 hln 100 PROBEVAR=
a 0 a 0 0 4 22 hlb 100 LABEL=76
part 542 nodeMarker 240 260 h
a 0 s 0 0 0 0 hln 100 PROBEVAR=
a 0 a 0 0 4 22 hlb 100 LABEL=77
@conn
w 147
a 0 up 0:33 0 0 0 hln 100 LVL=
s 300 290 240 290 251
a 0 up 33 0 275 289 hct 100 LVL=
w 145
a 0 up 0:33 0 0 0 hln 100 LVL=
s 300 270 240 270 252
a 0 up 33 0 275 269 hct 100 LVL=
w 143
a 0 up 0:33 0 0 0 hln 100 LVL=
s 300 280 240 280 253
a 0 up 33 0 275 279 hct 100 LVL=
w 25
a 0 up 0:33 0 0 0 hln 100 LVL=
s 370 230 360 230 460
s 370 150 370 230 459
s 440 150 370 150 420
a 0 up 33 0 505 149 hct 100 LVL=
w 23
a 0 up 0:33 0 0 0 hln 100 LVL=
s 380 240 360 240 462
s 380 160 380 240 461
s 440 160 380 160 421
a 0 up 33 0 510 159 hct 100 LVL=
w 21
a 0 up 0:33 0 0 0 hln 100 LVL=
s 390 250 360 250 464
s 390 170 390 250 463
s 440 170 390 170 422
a 0 up 33 0 515 169 hct 100 LVL=
w 159
a 0 up 0:33 0 0 0 hln 100 LVL=
s 440 100 420 100 162
s 420 100 420 90 155
a 0 up 33 0 422 95 hlt 100 LVL=
s 440 90 420 90 158
s 420 90 420 80 481
s 420 80 420 70 512
s 440 80 420 80 153
s 440 70 420 70 15
w 188
a 0 sr 0 0 0 0 hln 100 LABEL=Input_B5
a 0 up 0:33 0 0 0 hln 100 LVL=
s 390 110 440 110 521
a 0 sr 3 0 395 108 hcn 100 LABEL=Input_B5
s 360 110 390 110 394
a 0 up 33 0 375 109 hct 100 LVL=
w 186
a 0 sr 0 0 0 0 hln 100 LABEL=Input_B4
a 0 up 0:33 0 0 0 hln 100 LVL=
s 390 130 440 130 523
a 0 sr 3 0 395 128 hcn 100 LABEL=Input_B4
s 360 130 390 130 396
a 0 up 33 0 375 129 hct 100 LVL=
w 132
a 0 sr 0 0 0 0 hln 100 LABEL=Input_B3
a 0 up 0:33 0 0 0 hln 100 LVL=
s 270 190 230 190 525
a 0 sr 3 0 270 188 hcn 100 LABEL=Input_B3
s 300 190 270 190 243
a 0 up 33 0 275 189 hct 100 LVL=
w 134
a 0 sr 0 0 0 0 hln 100 LABEL=Input_B2
a 0 up 0:33 0 0 0 hln 100 LVL=
s 270 210 230 210 527
a 0 sr 3 0 270 208 hcn 100 LABEL=Input_B2
s 300 210 270 210 244
a 0 up 33 0 275 209 hct 100 LVL=
w 136
a 0 sr 0 0 0 0 hln 100 LABEL=Input_B1
a 0 up 0:33 0 0 0 hln 100 LVL=
s 270 230 230 230 529
a 0 sr 3 0 270 228 hcn 100 LABEL=Input_B1
s 300 230 270 230 245
a 0 up 33 0 275 229 hct 100 LVL=
w 138
a 0 sr 0 0 0 0 hln 100 LABEL=Input_B0
a 0 up 0:33 0 0 0 hln 100 LVL=
s 270 250 230 250 531
a 0 sr 3 0 270 248 hcn 100 LABEL=Input_B0
s 300 250 270 250 246
a 0 up 33 0 275 249 hct 100 LVL=
w 60
a 0 sr 0 0 0 0 hln 100 LABEL=Input_A5
a 0 up 0:33 0 0 0 hln 100 LVL=
s 360 120 440 120 533
a 0 sr 3 0 365 118 hcn 100 LABEL=Input_A5
s 270 120 360 120 404
a 0 up 33 0 270 119 hct 100 LVL=
w 62
a 0 sr 0 0 0 0 hln 100 LABEL=Input_A4
a 0 up 0:33 0 0 0 hln 100 LVL=
s 360 140 440 140 535
a 0 sr 3 0 365 138 hcn 100 LABEL=Input_A4
s 270 140 360 140 402
a 0 up 33 0 270 139 hct 100 LVL=
w 68
a 0 sr 0 0 0 0 hln 100 LABEL=Input_A3
a 0 up 0:33 0 0 0 hln 100 LVL=
s 240 200 140 200 537
a 0 sr 3 0 235 198 hcn 100 LABEL=Input_A3
s 300 200 240 200 452
a 0 up 33 0 230 199 hct 100 LVL=
w 70
a 0 sr 0 0 0 0 hln 100 LABEL=Input_A2
a 0 up 0:33 0 0 0 hln 100 LVL=
s 240 220 140 220 539
a 0 sr 3 0 235 218 hcn 100 LABEL=Input_A2
s 300 220 240 220 454
a 0 up 33 0 230 219 hct 100 LVL=
w 66
a 0 sr 0 0 0 0 hln 100 LABEL=Input_A1
a 0 up 0:33 0 0 0 hln 100 LVL=
s 240 240 140 240 541
a 0 sr 3 0 235 238 hcn 100 LABEL=Input_A1
s 300 240 240 240 456
a 0 up 33 0 230 239 hct 100 LVL=
w 64
a 0 sr 0 0 0 0 hln 100 LABEL=Input_A0
a 0 up 0:33 0 0 0 hln 100 LVL=
s 240 260 140 260 543
a 0 sr 3 0 235 258 hcn 100 LABEL=Input_A0
s 300 260 240 260 458
a 0 up 33 0 230 259 hct 100 LVL=
@junction
j 230 190
+ p 86 *OUT
+ w 132
j 230 210
+ p 85 *OUT
+ w 134
j 230 230
+ p 76 *OUT
+ w 136
j 230 250
+ p 75 *OUT
+ w 138
j 140 200
+ p 29 *OUT
+ w 68
j 140 220
+ p 28 *OUT
+ w 70
j 140 240
+ p 27 *OUT
+ w 66
j 140 260
+ p 26 *OUT
+ w 64
j 240 290
+ s 140
+ w 147
j 240 270
+ s 139
+ w 145
j 240 280
+ s 141
+ w 143
j 300 190
+ p 19 B3
+ w 132
j 300 210
+ p 19 B2
+ w 134
j 300 230
+ p 19 B1
+ w 136
j 300 250
+ p 19 B0
+ w 138
j 300 200
+ p 19 A3
+ w 68
j 300 220
+ p 19 A2
+ w 70
j 300 240
+ p 19 A1
+ w 66
j 300 260
+ p 19 A0
+ w 64
j 300 290
+ p 19 A>B_IN
+ w 147
j 300 270
+ p 19 A<B_IN
+ w 145
j 300 280
+ p 19 A=B_IN
+ w 143
j 360 230
+ p 19 A<B
+ w 25
j 360 240
+ p 19 A=B
+ w 23
j 360 250
+ p 19 A>B
+ w 21
j 270 140
+ p 30 *OUT
+ w 62
j 440 140
+ p 2 A0
+ w 62
j 270 120
+ p 31 *OUT
+ w 60
j 440 120
+ p 2 A1
+ w 60
j 360 130
+ p 87 *OUT
+ w 186
j 440 130
+ p 2 B0
+ w 186
j 360 110
+ p 88 *OUT
+ w 188
j 440 110
+ p 2 B1
+ w 188
j 440 100
+ p 2 A2
+ w 159
j 440 90
+ p 2 B2
+ w 159
j 420 90
+ w 159
+ w 159
j 420 70
+ s 3
+ w 159
j 440 80
+ p 2 A3
+ w 159
j 420 80
+ w 159
+ w 159
j 440 70
+ p 2 B3
+ w 159
j 440 170
+ p 2 A>B_IN
+ w 21
j 440 160
+ p 2 A=B_IN
+ w 23
j 440 150
+ p 2 A<B_IN
+ w 25
j 500 130
+ p 517 pin1
+ p 2 A>B
j 500 120
+ p 518 pin1
+ p 2 A=B
j 500 110
+ p 519 pin1
+ p 2 A<B
j 390 110
+ p 520 pin1
+ w 188
j 390 130
+ p 522 pin1
+ w 186
j 270 190
+ p 524 pin1
+ w 132
j 270 210
+ p 526 pin1
+ w 134
j 270 230
+ p 528 pin1
+ w 136
j 270 250
+ p 530 pin1
+ w 138
j 360 120
+ p 532 pin1
+ w 60
j 360 140
+ p 534 pin1
+ w 62
j 240 200
+ p 536 pin1
+ w 68
j 240 220
+ p 538 pin1
+ w 70
j 240 240
+ p 540 pin1
+ w 66
j 240 260
+ p 542 pin1
+ w 64
@attributes
a 0 s 0:13 0 0 0 hln 100 PAGETITLE=
a 0 s 0:13 0 0 0 hln 100 PAGENO=1
a 0 s 0:13 0 0 0 hln 100 PAGESIZE=B
a 0 s 0:13 0 0 0 hln 100 PAGECOUNT=1
@graphics
